* NGSPICE file created from pcell256scs.ext - technology: sky130A

.subckt sky130_fd_pr__pfet_g5v0d10v5_BK8KVU a_n158_n84606# a_n158_60430# a_n100_n31571#
+ a_n100_n45931# a_n158_n111890# a_n100_38793# a_n158_n15678# a_n158_n71682# a_n158_n136302#
+ a_100_4426# a_n100_76129# a_n100_n106243# a_n100_n14339# a_n158_n27166# a_n100_n70343#
+ a_n158_n83170# a_n158_158078# a_n100_n84703# a_n158_n97530# a_n100_n133527# a_n158_17350#
+ a_100_5862# a_100_123614# a_n158_n150662# a_n100_77565# a_n100_123517# a_n158_30274#
+ a_n158_44634# a_n100_n15775# a_n100_90489# a_100_86278# a_n100_n134963# a_100_110690#
+ a_n158_71918# a_n100_110593# a_n158_n55886# a_n100_124953# a_n100_n145015# a_100_135102#
+ a_n158_n106146# a_n100_89053# a_n100_135005# a_n158_n176510# a_n158_n162150# a_n158_n1318#
+ a_n158_56122# a_n100_n27263# a_n100_n132091# a_n100_n146451# a_n158_n107582# a_n100_122081#
+ a_n100_n40187# a_n158_83406# a_n100_136441# a_n158_n2754# a_n100_n54547# a_n158_n67374#
+ a_n100_n68907# a_100_107818# a_100_n32910# a_n100_n173735# a_100_163822# a_n158_n134866#
+ a_n100_163725# a_n158_n80298# a_n158_n94658# a_n158_14478# a_n158_28838# a_n158_70482#
+ a_n158_84842# a_n100_n55983# a_n158_n119070# a_n100_n66035# a_n100_n129219# a_100_119306#
+ a_n158_n146354# a_n100_119209# a_100_175310# a_100_n120506# a_n100_175213# a_n100_n93319#
+ a_n100_n67471# a_n158_96330# a_n100_n116295# a_n158_n173638# a_100_106382# a_n100_106285#
+ a_n158_n147790# a_n100_n80395# a_n100_n94755# a_100_n121942# a_n100_n157939# a_n100_n143579#
+ a_100_133666# a_n100_133569# a_n100_147929# a_n158_54686# a_100_11606# a_100_n133430#
+ a_100_n14242# a_n100_n155067# a_100_n28602# a_n158_n116198# a_n100_n169427# a_100_145154#
+ a_100_159514# a_n100_145057# a_n100_159417# a_100_n160714# a_100_n41526# a_n158_66174#
+ a_100_172438# a_100_146590# a_n158_93458# a_n100_146493# a_n100_n64599# a_n158_123614#
+ a_n100_n78959# a_n100_n183787# a_100_n42962# a_100_10170# a_100_24530# a_100_173874#
+ a_100_n172202# a_n100_173777# a_100_n53014# a_n158_94894# a_n158_110690# a_100_51814#
+ a_n100_n76087# a_100_n103274# a_n158_135102# a_100_n117634# a_100_n40090# a_100_129358#
+ a_100_n54450# a_100_n68810# a_100_n130558# a_100_n144918# a_n100_11509# a_100_n81734#
+ a_100_63302# a_100_n129122# a_n158_107818# a_n158_n32910# a_100_n131994# a_n158_163822#
+ a_n100_12945# a_100_n142046# a_100_n156406# a_100_n37218# a_100_n93222# a_100_21658#
+ a_n100_7201# a_n158_119306# a_n158_n8498# a_n158_175310# a_100_n157842# a_100_n143482#
+ a_100_n24294# a_100_n38654# a_n100_n179479# a_n100_10073# a_n100_24433# a_100_169566#
+ a_n100_169469# a_100_n170766# a_100_n51578# a_n158_106382# a_100_n65938# a_100_33146#
+ a_n100_51717# a_100_47506# a_n158_4426# a_100_n169330# a_n158_133666# a_n100_n4287#
+ a_100_34582# a_100_48942# a_100_n182254# a_n158_5862# a_100_n63066# a_100_n77426#
+ a_n100_63205# a_100_61866# a_n158_n14242# a_n158_145154# a_n158_n28602# a_100_n127686#
+ a_n158_159514# a_n100_n120603# a_100_n183690# a_100_n5626# a_n100_4329# a_n100_50281#
+ a_100_n78862# a_100_46070# a_n100_64641# a_n158_n41526# a_n158_172438# a_n158_31710#
+ a_100_n91786# a_n100_91925# a_n158_146590# a_100_73354# a_100_87714# a_100_n139174#
+ a_n100_5765# a_n158_n42962# a_n158_173874# a_n100_22997# a_n158_n53014# a_100_18786#
+ a_100_n166458# a_100_n152098# a_100_74790# a_n100_33049# a_n158_n120506# a_n100_47409#
+ a_100_n4190# a_100_99202# a_n158_n40090# a_n100_n41623# a_n158_129358# a_n158_n54450#
+ a_n158_n68810# a_n100_n104807# a_100_n167894# a_n100_n160811# a_n100_34485# a_n100_48845#
+ a_n158_n121942# a_n100_150801# a_n158_n81734# a_n158_118# a_n158_15914# a_n100_61769#
+ a_100_43198# a_100_57558# a_n100_21# a_n100_n53111# a_100_n179382# a_n158_n133430#
+ a_n158_n37218# a_n158_n93222# a_n158_13042# a_100_58994# a_100_1554# a_n158_27402#
+ a_100_n87478# a_n100_73257# a_n100_87617# a_n100_n103371# a_n158_n160714# a_100_69046#
+ a_n100_n117731# a_n100_n11467# a_n158_40326# a_n100_107721# a_n158_n24294# a_n100_n25827#
+ a_n158_n38654# a_n158_169566# a_n100_n81831# a_n100_n130655# a_100_2990# a_n100_18689#
+ a_100_120742# a_n100_74693# a_n100_120645# a_n158_n51578# a_n158_n65938# a_n158_41762#
+ a_n158_n172202# a_n100_99105# a_100_97766# a_n100_n37315# a_n100_n142143# a_n158_n103274#
+ a_n100_n156503# a_100_132230# a_n100_n50239# a_n158_n117634# a_n100_86181# a_n100_132133#
+ a_n158_n63066# a_n158_n77426# a_n100_n24391# a_n158_53250# a_n158_67610# a_n100_n38751#
+ a_n158_n130558# a_n158_n144918# a_n158_80534# a_n100_n51675# a_n158_n78862# a_n100_n100499#
+ a_n100_n114859# a_n158_n129122# a_n100_n170863# a_100_104946# a_n158_n131994# a_n100_58897#
+ a_n100_104849# a_100_160950# a_n100_160853# a_n158_n91786# a_n158_n142046# a_n158_25966#
+ a_100_171002# a_n158_n156406# a_n158_81970# w_n358_n183987# a_n158_36018# a_n100_n63163#
+ a_100_n104710# a_n158_92022# a_n100_n77523# a_n100_n126347# a_100_102074# a_100_116434#
+ a_n100_n182351# a_n100_116337# a_n158_n157842# a_n158_n143482# a_n100_172341# a_n100_n90447#
+ a_100_n12806# a_n158_23094# a_n158_37454# a_100_143718# a_n158_n170766# a_100_79098#
+ a_n100_97669# a_n100_n127783# a_n158_50378# a_100_117870# a_n100_n35879# a_n100_n89011#
+ a_n158_64738# a_n100_117773# a_n100_n91883# a_n158_38890# a_100_130794# a_n158_n169330#
+ a_n100_130697# a_n100_n165119# a_100_155206# a_n100_155109# a_n158_n182254# a_n100_n139271#
+ a_n158_76226# a_n100_129261# a_n100_n47367# a_n158_n9934# a_100_n11370# a_100_n25730#
+ a_n100_n166555# a_n100_n152195# a_100_142282# a_n158_n127686# a_n100_142185# a_100_156642#
+ a_100_n101838# a_n158_n183690# a_n100_156545# a_n158_n87478# a_100_20222# a_n158_77662#
+ a_n100_n167991# a_n158_n7062# a_n158_90586# a_n158_120742# a_n100_157981# a_n100_n178043#
+ a_100_114998# a_100_168130# a_100_n113326# a_n158_n139174# a_n100_168033# a_n100_n5723#
+ a_n100_n86139# a_100_7298# a_100_n50142# a_100_n64502# a_n158_89150# a_100_181054#
+ a_n158_n166458# a_n158_n152098# a_n158_132230# a_n100_n87575# a_100_n114762# a_n100_n136399#
+ a_100_126486# a_n100_126389# a_100_182490# a_n158_n167894# a_n100_182393# a_100_n22858#
+ a_100_60430# a_100_n126250# a_n158_104946# a_n100_n99063# a_n158_160950# a_n158_n179382#
+ a_n158_171002# a_100_n153534# a_100_n34346# a_n100_20125# a_100_n48706# a_100_n90350#
+ a_100_165258# a_100_179618# a_100_n180818# a_n158_102074# a_n158_86278# a_n158_116434#
+ a_100_n154970# a_100_n35782# a_100_n109018# a_n100_21561# a_n100_35921# a_100_166694#
+ a_n158_n12806# a_100_n165022# a_100_17350# a_n158_143718# a_n100_166597# a_n158_117870#
+ a_100_30274# a_100_44634# a_n158_1554# a_100_n73118# a_n158_130794# a_100_n47270#
+ a_100_71918# a_100_178182# a_100_n123378# a_100_n137738# a_n158_155206# a_n100_178085#
+ a_100_n1318# a_100_n60194# a_n158_2990# a_100_n74554# a_100_n88914# a_n100_60333#
+ a_100_56122# a_n158_n11370# a_n100_n12903# a_n158_n25730# a_n158_142282# a_n158_156642#
+ a_100_83406# a_100_n2754# a_100_n19986# a_100_n75990# a_n100_1457# a_100_n149226#
+ a_100_n86042# a_100_14478# a_100_28838# a_100_70482# a_100_84842# a_n100_n10031#
+ a_n100_2893# a_n158_114998# a_n158_168130# a_n100_17253# a_n158_n104710# a_n158_n50142#
+ a_n158_n64502# a_100_n163586# a_n158_181054# a_100_n177946# a_100_n44398# a_100_n58758#
+ a_n100_30177# a_n100_44537# a_100_96330# a_n158_11606# a_n158_126486# a_n158_182490#
+ a_n100_n101935# a_n100_45973# a_n158_n22858# a_100_n175074# a_n100_56025# a_100_54686#
+ a_n100_83309# a_n100_n113423# a_100_103510# a_n100_57461# a_n100_103413# a_n100_n21519#
+ a_n158_n34346# a_n158_n48706# a_n158_165258# a_n158_n90350# a_n158_179618# a_n100_n140707#
+ a_n158_10170# a_n158_24530# a_n158_n101838# a_n100_70385# a_100_n98966# a_100_66174#
+ a_n100_84745# a_n100_n22955# a_n158_51814# a_n158_n35782# a_n158_166694# a_100_93458#
+ a_n100_n33007# a_100_n159278# a_100_n96094# a_n158_n113326# a_n100_96233# a_n158_n73118#
+ a_100_94894# a_n100_n20083# a_n158_63302# a_n100_n34443# a_n158_n47270# a_n100_n48803#
+ a_n158_178182# a_n100_n153631# a_n158_n114762# a_n158_n60194# a_n100_n61727# a_n158_n74554#
+ a_n100_143621# a_n158_n88914# a_100_100638# a_n100_n180915# a_n100_54589# a_n100_68949#
+ a_n100_170905# a_n158_7298# a_n158_21658# a_n158_n19986# a_n100_n109115# a_n158_n75990#
+ a_n100_n111987# a_n158_n126250# a_100_n100402# a_n100_101977# a_n100_n73215# a_n158_n86042#
+ a_n100_n122039# a_100_8734# a_100_112126# a_n100_66077# a_n100_112029# a_n158_n153534#
+ a_n158_33146# a_n100_n18647# a_n158_47506# a_n100_n60291# a_n100_n74651# a_n100_n123475#
+ a_n158_n180818# a_100_113562# a_100_n8498# a_n100_n137835# a_100_127922# a_n158_n44398#
+ a_n100_113465# a_n100_127825# a_n158_n58758# a_n158_n154970# a_n158_n109018# a_n158_n165022#
+ a_n100_n150759# a_n158_34582# a_n158_48942# a_100_140846# a_n100_94797# a_n100_140749#
+ a_n158_61866# a_n100_n149323# a_100_125050# a_100_139410# a_n100_n43059# a_n100_n57419#
+ a_n100_139313# a_n158_n5626# a_100_n140610# a_100_n21422# a_n100_n162247# a_n158_46070#
+ a_100_152334# a_n158_n123378# a_n158_n137738# a_n100_n176607# a_n100_152237# a_n100_n44495#
+ a_n158_73354# a_n158_87714# a_n158_103510# a_n100_n58855# a_n100_n107679# a_n100_n163683#
+ a_100_153770# a_n100_153673# a_n100_n71779# a_n158_n98966# a_n158_18786# a_n158_n149226#
+ a_n158_74790# a_n100_n1415# a_100_31710# a_n100_180957# a_n158_99202# a_n158_n4190#
+ a_n100_n119167# a_100_109254# a_n100_n175171# a_n100_109157# a_n100_n2851# a_n100_n83267#
+ a_n158_n96094# a_100_n110454# a_100_n124814# a_n100_165161# a_n100_179521# a_n100_n97627#
+ a_100_122178# a_100_136538# a_100_n61630# a_n158_n163586# a_n158_n177946# a_n158_43198#
+ a_n158_57558# a_n100_n28699# a_100_n111890# a_n100_n147887# a_100_137974# a_n158_100638#
+ a_100_n136302# a_n100_137877# a_100_n17114# a_100_148026# a_100_150898# a_n158_n175074#
+ a_100_15914# a_n158_58994# a_100_n30038# a_n158_69046# a_n100_n96191# a_n100_n159375#
+ a_100_n18550# a_100_149462# a_n158_112126# a_n100_149365# a_100_n150662# a_n100_n172299#
+ a_100_n31474# a_100_n45834# a_100_13042# a_n100_31613# a_100_162386# a_100_176746#
+ a_100_27402# a_n100_162289# a_n100_176649# a_n158_113562# a_100_40326# a_n158_97766#
+ a_n158_127922# a_100_n106146# a_100_118# a_100_n176510# a_100_n162150# a_n158_140846#
+ a_n100_43101# a_100_n57322# a_n158_n159278# a_100_41762# a_100_n70246# a_100_n84606#
+ a_100_n107582# a_n158_125050# a_n158_139410# a_n158_n21422# a_n158_152334# a_100_n134866#
+ a_100_n15678# a_n100_15817# a_100_n71682# a_n100_71821# a_100_53250# a_100_67610#
+ a_100_n119070# a_100_80534# a_n158_153770# a_100_n146354# a_100_n27166# a_n158_n100402#
+ a_n100_27305# a_100_158078# a_100_n83170# a_100_n97530# a_100_25966# a_100_n173638#
+ a_100_81970# a_n100_40229# a_n158_79098# a_n158_109254# a_100_36018# a_100_n147790#
+ a_100_92022# a_n100_14381# a_n100_28741# a_n158_122178# a_n158_n61630# a_n158_136538#
+ a_n100_41665# a_n100_n7159# a_100_n55886# a_100_23094# a_100_37454# a_n158_8734#
+ a_100_50378# a_n158_137974# a_100_64738# a_n158_n17114# a_100_n116198# a_n158_148026#
+ a_n100_n8595# a_100_38890# a_n158_150898# a_100_n67374# a_n100_53153# a_n100_67513#
+ a_n158_n30038# a_n158_n140610# a_n158_20222# a_n158_n18550# a_100_n80298# a_n100_80437#
+ a_100_n94658# a_100_76226# a_n158_149462# a_n100_n110551# a_n100_n124911# a_100_n9934#
+ a_n100_8637# a_n158_n31474# a_n100_100541# a_n100_114901# a_n158_n45834# a_n158_162386#
+ a_n158_176746# a_n100_25869# a_n100_79001# a_n100_81873# a_100_77662# a_n100_n17211#
+ a_100_n7062# a_100_90586# VSUBS a_n100_n30135# a_n158_n57322# a_n100_37357# a_n158_n110454#
+ a_n158_n124814# a_n100_93361# a_n158_n70246# a_100_89150#
X0 a_100_169566# a_n100_169469# a_n158_169566# w_n358_n183987# sky130_fd_pr__pfet_g5v0d10v5 ad=1.74 pd=12.58 as=1.74 ps=12.58 w=6 l=1
X1 a_100_53250# a_n100_53153# a_n158_53250# w_n358_n183987# sky130_fd_pr__pfet_g5v0d10v5 ad=1.74 pd=12.58 as=1.74 ps=12.58 w=6 l=1
X2 a_100_n98966# a_n100_n99063# a_n158_n98966# w_n358_n183987# sky130_fd_pr__pfet_g5v0d10v5 ad=1.74 pd=12.58 as=1.74 ps=12.58 w=6 l=1
X3 a_100_90586# a_n100_90489# a_n158_90586# w_n358_n183987# sky130_fd_pr__pfet_g5v0d10v5 ad=1.74 pd=12.58 as=1.74 ps=12.58 w=6 l=1
X4 a_100_21658# a_n100_21561# a_n158_21658# w_n358_n183987# sky130_fd_pr__pfet_g5v0d10v5 ad=1.74 pd=12.58 as=1.74 ps=12.58 w=6 l=1
X5 a_100_67610# a_n100_67513# a_n158_67610# w_n358_n183987# sky130_fd_pr__pfet_g5v0d10v5 ad=1.74 pd=12.58 as=1.74 ps=12.58 w=6 l=1
X6 a_100_123614# a_n100_123517# a_n158_123614# w_n358_n183987# sky130_fd_pr__pfet_g5v0d10v5 ad=1.74 pd=12.58 as=1.74 ps=12.58 w=6 l=1
X7 a_100_n11370# a_n100_n11467# a_n158_n11370# w_n358_n183987# sky130_fd_pr__pfet_g5v0d10v5 ad=1.74 pd=12.58 as=1.74 ps=12.58 w=6 l=1
X8 a_100_n152098# a_n100_n152195# a_n158_n152098# w_n358_n183987# sky130_fd_pr__pfet_g5v0d10v5 ad=1.74 pd=12.58 as=1.74 ps=12.58 w=6 l=1
X9 a_100_n110454# a_n100_n110551# a_n158_n110454# w_n358_n183987# sky130_fd_pr__pfet_g5v0d10v5 ad=1.74 pd=12.58 as=1.74 ps=12.58 w=6 l=1
X10 a_100_n80298# a_n100_n80395# a_n158_n80298# w_n358_n183987# sky130_fd_pr__pfet_g5v0d10v5 ad=1.74 pd=12.58 as=1.74 ps=12.58 w=6 l=1
X11 a_100_165258# a_n100_165161# a_n158_165258# w_n358_n183987# sky130_fd_pr__pfet_g5v0d10v5 ad=1.74 pd=12.58 as=1.74 ps=12.58 w=6 l=1
X12 a_100_n57322# a_n100_n57419# a_n158_n57322# w_n358_n183987# sky130_fd_pr__pfet_g5v0d10v5 ad=1.74 pd=12.58 as=1.74 ps=12.58 w=6 l=1
X13 a_100_153770# a_n100_153673# a_n158_153770# w_n358_n183987# sky130_fd_pr__pfet_g5v0d10v5 ad=1.74 pd=12.58 as=1.74 ps=12.58 w=6 l=1
X14 a_100_n129122# a_n100_n129219# a_n158_n129122# w_n358_n183987# sky130_fd_pr__pfet_g5v0d10v5 ad=1.74 pd=12.58 as=1.74 ps=12.58 w=6 l=1
X15 a_100_n124814# a_n100_n124911# a_n158_n124814# w_n358_n183987# sky130_fd_pr__pfet_g5v0d10v5 ad=1.74 pd=12.58 as=1.74 ps=12.58 w=6 l=1
X16 a_100_n94658# a_n100_n94755# a_n158_n94658# w_n358_n183987# sky130_fd_pr__pfet_g5v0d10v5 ad=1.74 pd=12.58 as=1.74 ps=12.58 w=6 l=1
X17 a_100_179618# a_n100_179521# a_n158_179618# w_n358_n183987# sky130_fd_pr__pfet_g5v0d10v5 ad=1.74 pd=12.58 as=1.74 ps=12.58 w=6 l=1
X18 a_100_n25730# a_n100_n25827# a_n158_n25730# w_n358_n183987# sky130_fd_pr__pfet_g5v0d10v5 ad=1.74 pd=12.58 as=1.74 ps=12.58 w=6 l=1
X19 a_100_n166458# a_n100_n166555# a_n158_n166458# w_n358_n183987# sky130_fd_pr__pfet_g5v0d10v5 ad=1.74 pd=12.58 as=1.74 ps=12.58 w=6 l=1
X20 a_100_126486# a_n100_126389# a_n158_126486# w_n358_n183987# sky130_fd_pr__pfet_g5v0d10v5 ad=1.74 pd=12.58 as=1.74 ps=12.58 w=6 l=1
X21 a_100_63302# a_n100_63205# a_n158_63302# w_n358_n183987# sky130_fd_pr__pfet_g5v0d10v5 ad=1.74 pd=12.58 as=1.74 ps=12.58 w=6 l=1
X22 a_100_n7062# a_n100_n7159# a_n158_n7062# w_n358_n183987# sky130_fd_pr__pfet_g5v0d10v5 ad=1.74 pd=12.58 as=1.74 ps=12.58 w=6 l=1
X23 a_100_10170# a_n100_10073# a_n158_10170# w_n358_n183987# sky130_fd_pr__pfet_g5v0d10v5 ad=1.74 pd=12.58 as=1.74 ps=12.58 w=6 l=1
X24 a_100_n2754# a_n100_n2851# a_n158_n2754# w_n358_n183987# sky130_fd_pr__pfet_g5v0d10v5 ad=1.74 pd=12.58 as=1.74 ps=12.58 w=6 l=1
X25 a_100_36018# a_n100_35921# a_n158_36018# w_n358_n183987# sky130_fd_pr__pfet_g5v0d10v5 ad=1.74 pd=12.58 as=1.74 ps=12.58 w=6 l=1
X26 a_100_n55886# a_n100_n55983# a_n158_n55886# w_n358_n183987# sky130_fd_pr__pfet_g5v0d10v5 ad=1.74 pd=12.58 as=1.74 ps=12.58 w=6 l=1
X27 a_100_n127686# a_n100_n127783# a_n158_n127686# w_n358_n183987# sky130_fd_pr__pfet_g5v0d10v5 ad=1.74 pd=12.58 as=1.74 ps=12.58 w=6 l=1
X28 a_100_n53014# a_n100_n53111# a_n158_n53014# w_n358_n183987# sky130_fd_pr__pfet_g5v0d10v5 ad=1.74 pd=12.58 as=1.74 ps=12.58 w=6 l=1
X29 a_100_n120506# a_n100_n120603# a_n158_n120506# w_n358_n183987# sky130_fd_pr__pfet_g5v0d10v5 ad=1.74 pd=12.58 as=1.74 ps=12.58 w=6 l=1
X30 a_100_n90350# a_n100_n90447# a_n158_n90350# w_n358_n183987# sky130_fd_pr__pfet_g5v0d10v5 ad=1.74 pd=12.58 as=1.74 ps=12.58 w=6 l=1
X31 a_100_24530# a_n100_24433# a_n158_24530# w_n358_n183987# sky130_fd_pr__pfet_g5v0d10v5 ad=1.74 pd=12.58 as=1.74 ps=12.58 w=6 l=1
X32 a_100_n162150# a_n100_n162247# a_n158_n162150# w_n358_n183987# sky130_fd_pr__pfet_g5v0d10v5 ad=1.74 pd=12.58 as=1.74 ps=12.58 w=6 l=1
X33 a_100_122178# a_n100_122081# a_n158_122178# w_n358_n183987# sky130_fd_pr__pfet_g5v0d10v5 ad=1.74 pd=12.58 as=1.74 ps=12.58 w=6 l=1
X34 a_100_66174# a_n100_66077# a_n158_66174# w_n358_n183987# sky130_fd_pr__pfet_g5v0d10v5 ad=1.74 pd=12.58 as=1.74 ps=12.58 w=6 l=1
X35 a_100_61866# a_n100_61769# a_n158_61866# w_n358_n183987# sky130_fd_pr__pfet_g5v0d10v5 ad=1.74 pd=12.58 as=1.74 ps=12.58 w=6 l=1
X36 a_100_168130# a_n100_168033# a_n158_168130# w_n358_n183987# sky130_fd_pr__pfet_g5v0d10v5 ad=1.74 pd=12.58 as=1.74 ps=12.58 w=6 l=1
X37 a_100_n14242# a_n100_n14339# a_n158_n14242# w_n358_n183987# sky130_fd_pr__pfet_g5v0d10v5 ad=1.74 pd=12.58 as=1.74 ps=12.58 w=6 l=1
X38 a_100_163822# a_n100_163725# a_n158_163822# w_n358_n183987# sky130_fd_pr__pfet_g5v0d10v5 ad=1.74 pd=12.58 as=1.74 ps=12.58 w=6 l=1
X39 a_100_110690# a_n100_110593# a_n158_110690# w_n358_n183987# sky130_fd_pr__pfet_g5v0d10v5 ad=1.74 pd=12.58 as=1.74 ps=12.58 w=6 l=1
X40 a_100_n150662# a_n100_n150759# a_n158_n150662# w_n358_n183987# sky130_fd_pr__pfet_g5v0d10v5 ad=1.74 pd=12.58 as=1.74 ps=12.58 w=6 l=1
X41 a_100_n176510# a_n100_n176607# a_n158_n176510# w_n358_n183987# sky130_fd_pr__pfet_g5v0d10v5 ad=1.74 pd=12.58 as=1.74 ps=12.58 w=6 l=1
X42 a_100_n51578# a_n100_n51675# a_n158_n51578# w_n358_n183987# sky130_fd_pr__pfet_g5v0d10v5 ad=1.74 pd=12.58 as=1.74 ps=12.58 w=6 l=1
X43 a_100_136538# a_n100_136441# a_n158_136538# w_n358_n183987# sky130_fd_pr__pfet_g5v0d10v5 ad=1.74 pd=12.58 as=1.74 ps=12.58 w=6 l=1
X44 a_100_n123378# a_n100_n123475# a_n158_n123378# w_n358_n183987# sky130_fd_pr__pfet_g5v0d10v5 ad=1.74 pd=12.58 as=1.74 ps=12.58 w=6 l=1
X45 a_100_118# a_n100_21# a_n158_118# w_n358_n183987# sky130_fd_pr__pfet_g5v0d10v5 ad=1.74 pd=12.58 as=1.74 ps=12.58 w=6 l=1
X46 a_100_n28602# a_n100_n28699# a_n158_n28602# w_n358_n183987# sky130_fd_pr__pfet_g5v0d10v5 ad=1.74 pd=12.58 as=1.74 ps=12.58 w=6 l=1
X47 a_100_20222# a_n100_20125# a_n158_20222# w_n358_n183987# sky130_fd_pr__pfet_g5v0d10v5 ad=1.74 pd=12.58 as=1.74 ps=12.58 w=6 l=1
X48 a_100_n65938# a_n100_n66035# a_n158_n65938# w_n358_n183987# sky130_fd_pr__pfet_g5v0d10v5 ad=1.74 pd=12.58 as=1.74 ps=12.58 w=6 l=1
X49 a_100_166694# a_n100_166597# a_n158_166694# w_n358_n183987# sky130_fd_pr__pfet_g5v0d10v5 ad=1.74 pd=12.58 as=1.74 ps=12.58 w=6 l=1
X50 a_100_n137738# a_n100_n137835# a_n158_n137738# w_n358_n183987# sky130_fd_pr__pfet_g5v0d10v5 ad=1.74 pd=12.58 as=1.74 ps=12.58 w=6 l=1
X51 a_100_76226# a_n100_76129# a_n158_76226# w_n358_n183987# sky130_fd_pr__pfet_g5v0d10v5 ad=1.74 pd=12.58 as=1.74 ps=12.58 w=6 l=1
X52 a_100_71918# a_n100_71821# a_n158_71918# w_n358_n183987# sky130_fd_pr__pfet_g5v0d10v5 ad=1.74 pd=12.58 as=1.74 ps=12.58 w=6 l=1
X53 a_100_23094# a_n100_22997# a_n158_23094# w_n358_n183987# sky130_fd_pr__pfet_g5v0d10v5 ad=1.74 pd=12.58 as=1.74 ps=12.58 w=6 l=1
X54 a_100_n167894# a_n100_n167991# a_n158_n167894# w_n358_n183987# sky130_fd_pr__pfet_g5v0d10v5 ad=1.74 pd=12.58 as=1.74 ps=12.58 w=6 l=1
X55 a_100_n93222# a_n100_n93319# a_n158_n93222# w_n358_n183987# sky130_fd_pr__pfet_g5v0d10v5 ad=1.74 pd=12.58 as=1.74 ps=12.58 w=6 l=1
X56 a_100_n165022# a_n100_n165119# a_n158_n165022# w_n358_n183987# sky130_fd_pr__pfet_g5v0d10v5 ad=1.74 pd=12.58 as=1.74 ps=12.58 w=6 l=1
X57 a_100_n160714# a_n100_n160811# a_n158_n160714# w_n358_n183987# sky130_fd_pr__pfet_g5v0d10v5 ad=1.74 pd=12.58 as=1.74 ps=12.58 w=6 l=1
X58 a_100_125050# a_n100_124953# a_n158_125050# w_n358_n183987# sky130_fd_pr__pfet_g5v0d10v5 ad=1.74 pd=12.58 as=1.74 ps=12.58 w=6 l=1
X59 a_100_120742# a_n100_120645# a_n158_120742# w_n358_n183987# sky130_fd_pr__pfet_g5v0d10v5 ad=1.74 pd=12.58 as=1.74 ps=12.58 w=6 l=1
X60 a_100_n61630# a_n100_n61727# a_n158_n61630# w_n358_n183987# sky130_fd_pr__pfet_g5v0d10v5 ad=1.74 pd=12.58 as=1.74 ps=12.58 w=6 l=1
X61 a_100_162386# a_n100_162289# a_n158_162386# w_n358_n183987# sky130_fd_pr__pfet_g5v0d10v5 ad=1.74 pd=12.58 as=1.74 ps=12.58 w=6 l=1
X62 a_100_n133430# a_n100_n133527# a_n158_n133430# w_n358_n183987# sky130_fd_pr__pfet_g5v0d10v5 ad=1.74 pd=12.58 as=1.74 ps=12.58 w=6 l=1
X63 a_100_37454# a_n100_37357# a_n158_37454# w_n358_n183987# sky130_fd_pr__pfet_g5v0d10v5 ad=1.74 pd=12.58 as=1.74 ps=12.58 w=6 l=1
X64 a_100_139410# a_n100_139313# a_n158_139410# w_n358_n183987# sky130_fd_pr__pfet_g5v0d10v5 ad=1.74 pd=12.58 as=1.74 ps=12.58 w=6 l=1
X65 a_100_79098# a_n100_79001# a_n158_79098# w_n358_n183987# sky130_fd_pr__pfet_g5v0d10v5 ad=1.74 pd=12.58 as=1.74 ps=12.58 w=6 l=1
X66 a_100_n96094# a_n100_n96191# a_n158_n96094# w_n358_n183987# sky130_fd_pr__pfet_g5v0d10v5 ad=1.74 pd=12.58 as=1.74 ps=12.58 w=6 l=1
X67 a_100_n27166# a_n100_n27263# a_n158_n27166# w_n358_n183987# sky130_fd_pr__pfet_g5v0d10v5 ad=1.74 pd=12.58 as=1.74 ps=12.58 w=6 l=1
X68 a_100_n121942# a_n100_n122039# a_n158_n121942# w_n358_n183987# sky130_fd_pr__pfet_g5v0d10v5 ad=1.74 pd=12.58 as=1.74 ps=12.58 w=6 l=1
X69 a_100_n91786# a_n100_n91883# a_n158_n91786# w_n358_n183987# sky130_fd_pr__pfet_g5v0d10v5 ad=1.74 pd=12.58 as=1.74 ps=12.58 w=6 l=1
X70 a_100_176746# a_n100_176649# a_n158_176746# w_n358_n183987# sky130_fd_pr__pfet_g5v0d10v5 ad=1.74 pd=12.58 as=1.74 ps=12.58 w=6 l=1
X71 a_100_n22858# a_n100_n22955# a_n158_n22858# w_n358_n183987# sky130_fd_pr__pfet_g5v0d10v5 ad=1.74 pd=12.58 as=1.74 ps=12.58 w=6 l=1
X72 a_100_n163586# a_n100_n163683# a_n158_n163586# w_n358_n183987# sky130_fd_pr__pfet_g5v0d10v5 ad=1.74 pd=12.58 as=1.74 ps=12.58 w=6 l=1
X73 a_100_107818# a_n100_107721# a_n158_107818# w_n358_n183987# sky130_fd_pr__pfet_g5v0d10v5 ad=1.74 pd=12.58 as=1.74 ps=12.58 w=6 l=1
X74 a_100_60430# a_n100_60333# a_n158_60430# w_n358_n183987# sky130_fd_pr__pfet_g5v0d10v5 ad=1.74 pd=12.58 as=1.74 ps=12.58 w=6 l=1
X75 a_100_n177946# a_n100_n178043# a_n158_n177946# w_n358_n183987# sky130_fd_pr__pfet_g5v0d10v5 ad=1.74 pd=12.58 as=1.74 ps=12.58 w=6 l=1
X76 a_100_137974# a_n100_137877# a_n158_137974# w_n358_n183987# sky130_fd_pr__pfet_g5v0d10v5 ad=1.74 pd=12.58 as=1.74 ps=12.58 w=6 l=1
X77 a_100_33146# a_n100_33049# a_n158_33146# w_n358_n183987# sky130_fd_pr__pfet_g5v0d10v5 ad=1.74 pd=12.58 as=1.74 ps=12.58 w=6 l=1
X78 a_100_n50142# a_n100_n50239# a_n158_n50142# w_n358_n183987# sky130_fd_pr__pfet_g5v0d10v5 ad=1.74 pd=12.58 as=1.74 ps=12.58 w=6 l=1
X79 a_100_135102# a_n100_135005# a_n158_135102# w_n358_n183987# sky130_fd_pr__pfet_g5v0d10v5 ad=1.74 pd=12.58 as=1.74 ps=12.58 w=6 l=1
X80 a_100_172438# a_n100_172341# a_n158_172438# w_n358_n183987# sky130_fd_pr__pfet_g5v0d10v5 ad=1.74 pd=12.58 as=1.74 ps=12.58 w=6 l=1
X81 a_100_47506# a_n100_47409# a_n158_47506# w_n358_n183987# sky130_fd_pr__pfet_g5v0d10v5 ad=1.74 pd=12.58 as=1.74 ps=12.58 w=6 l=1
X82 a_100_8734# a_n100_8637# a_n158_8734# w_n358_n183987# sky130_fd_pr__pfet_g5v0d10v5 ad=1.74 pd=12.58 as=1.74 ps=12.58 w=6 l=1
X83 a_100_n64502# a_n100_n64599# a_n158_n64502# w_n358_n183987# sky130_fd_pr__pfet_g5v0d10v5 ad=1.74 pd=12.58 as=1.74 ps=12.58 w=6 l=1
X84 a_100_160950# a_n100_160853# a_n158_160950# w_n358_n183987# sky130_fd_pr__pfet_g5v0d10v5 ad=1.74 pd=12.58 as=1.74 ps=12.58 w=6 l=1
X85 a_100_n136302# a_n100_n136399# a_n158_n136302# w_n358_n183987# sky130_fd_pr__pfet_g5v0d10v5 ad=1.74 pd=12.58 as=1.74 ps=12.58 w=6 l=1
X86 a_100_n32910# a_n100_n33007# a_n158_n32910# w_n358_n183987# sky130_fd_pr__pfet_g5v0d10v5 ad=1.74 pd=12.58 as=1.74 ps=12.58 w=6 l=1
X87 a_100_n37218# a_n100_n37315# a_n158_n37218# w_n358_n183987# sky130_fd_pr__pfet_g5v0d10v5 ad=1.74 pd=12.58 as=1.74 ps=12.58 w=6 l=1
X88 a_100_n173638# a_n100_n173735# a_n158_n173638# w_n358_n183987# sky130_fd_pr__pfet_g5v0d10v5 ad=1.74 pd=12.58 as=1.74 ps=12.58 w=6 l=1
X89 a_100_133666# a_n100_133569# a_n158_133666# w_n358_n183987# sky130_fd_pr__pfet_g5v0d10v5 ad=1.74 pd=12.58 as=1.74 ps=12.58 w=6 l=1
X90 a_100_77662# a_n100_77565# a_n158_77662# w_n358_n183987# sky130_fd_pr__pfet_g5v0d10v5 ad=1.74 pd=12.58 as=1.74 ps=12.58 w=6 l=1
X91 a_100_n109018# a_n100_n109115# a_n158_n109018# w_n358_n183987# sky130_fd_pr__pfet_g5v0d10v5 ad=1.74 pd=12.58 as=1.74 ps=12.58 w=6 l=1
X92 a_100_n104710# a_n100_n104807# a_n158_n104710# w_n358_n183987# sky130_fd_pr__pfet_g5v0d10v5 ad=1.74 pd=12.58 as=1.74 ps=12.58 w=6 l=1
X93 a_100_n67374# a_n100_n67471# a_n158_n67374# w_n358_n183987# sky130_fd_pr__pfet_g5v0d10v5 ad=1.74 pd=12.58 as=1.74 ps=12.58 w=6 l=1
X94 a_100_n139174# a_n100_n139271# a_n158_n139174# w_n358_n183987# sky130_fd_pr__pfet_g5v0d10v5 ad=1.74 pd=12.58 as=1.74 ps=12.58 w=6 l=1
X95 a_100_38890# a_n100_38793# a_n158_38890# w_n358_n183987# sky130_fd_pr__pfet_g5v0d10v5 ad=1.74 pd=12.58 as=1.74 ps=12.58 w=6 l=1
X96 a_100_4426# a_n100_4329# a_n158_4426# w_n358_n183987# sky130_fd_pr__pfet_g5v0d10v5 ad=1.74 pd=12.58 as=1.74 ps=12.58 w=6 l=1
X97 a_100_n134866# a_n100_n134963# a_n158_n134866# w_n358_n183987# sky130_fd_pr__pfet_g5v0d10v5 ad=1.74 pd=12.58 as=1.74 ps=12.58 w=6 l=1
X98 a_100_31710# a_n100_31613# a_n158_31710# w_n358_n183987# sky130_fd_pr__pfet_g5v0d10v5 ad=1.74 pd=12.58 as=1.74 ps=12.58 w=6 l=1
X99 a_100_73354# a_n100_73257# a_n158_73354# w_n358_n183987# sky130_fd_pr__pfet_g5v0d10v5 ad=1.74 pd=12.58 as=1.74 ps=12.58 w=6 l=1
X100 a_100_175310# a_n100_175213# a_n158_175310# w_n358_n183987# sky130_fd_pr__pfet_g5v0d10v5 ad=1.74 pd=12.58 as=1.74 ps=12.58 w=6 l=1
X101 a_100_n21422# a_n100_n21519# a_n158_n21422# w_n358_n183987# sky130_fd_pr__pfet_g5v0d10v5 ad=1.74 pd=12.58 as=1.74 ps=12.58 w=6 l=1
X102 a_100_7298# a_n100_7201# a_n158_7298# w_n358_n183987# sky130_fd_pr__pfet_g5v0d10v5 ad=1.74 pd=12.58 as=1.74 ps=12.58 w=6 l=1
X103 a_100_n63066# a_n100_n63163# a_n158_n63066# w_n358_n183987# sky130_fd_pr__pfet_g5v0d10v5 ad=1.74 pd=12.58 as=1.74 ps=12.58 w=6 l=1
X104 a_100_148026# a_n100_147929# a_n158_148026# w_n358_n183987# sky130_fd_pr__pfet_g5v0d10v5 ad=1.74 pd=12.58 as=1.74 ps=12.58 w=6 l=1
X105 a_100_87714# a_n100_87617# a_n158_87714# w_n358_n183987# sky130_fd_pr__pfet_g5v0d10v5 ad=1.74 pd=12.58 as=1.74 ps=12.58 w=6 l=1
X106 a_100_143718# a_n100_143621# a_n158_143718# w_n358_n183987# sky130_fd_pr__pfet_g5v0d10v5 ad=1.74 pd=12.58 as=1.74 ps=12.58 w=6 l=1
X107 a_100_34582# a_n100_34485# a_n158_34582# w_n358_n183987# sky130_fd_pr__pfet_g5v0d10v5 ad=1.74 pd=12.58 as=1.74 ps=12.58 w=6 l=1
X108 a_100_n130558# a_n100_n130655# a_n158_n130558# w_n358_n183987# sky130_fd_pr__pfet_g5v0d10v5 ad=1.74 pd=12.58 as=1.74 ps=12.58 w=6 l=1
X109 a_100_n24294# a_n100_n24391# a_n158_n24294# w_n358_n183987# sky130_fd_pr__pfet_g5v0d10v5 ad=1.74 pd=12.58 as=1.74 ps=12.58 w=6 l=1
X110 a_100_n77426# a_n100_n77523# a_n158_n77426# w_n358_n183987# sky130_fd_pr__pfet_g5v0d10v5 ad=1.74 pd=12.58 as=1.74 ps=12.58 w=6 l=1
X111 a_100_178182# a_n100_178085# a_n158_178182# w_n358_n183987# sky130_fd_pr__pfet_g5v0d10v5 ad=1.74 pd=12.58 as=1.74 ps=12.58 w=6 l=1
X112 a_100_173874# a_n100_173777# a_n158_173874# w_n358_n183987# sky130_fd_pr__pfet_g5v0d10v5 ad=1.74 pd=12.58 as=1.74 ps=12.58 w=6 l=1
X113 a_100_n149226# a_n100_n149323# a_n158_n149226# w_n358_n183987# sky130_fd_pr__pfet_g5v0d10v5 ad=1.74 pd=12.58 as=1.74 ps=12.58 w=6 l=1
X114 a_100_n144918# a_n100_n145015# a_n158_n144918# w_n358_n183987# sky130_fd_pr__pfet_g5v0d10v5 ad=1.74 pd=12.58 as=1.74 ps=12.58 w=6 l=1
X115 a_100_171002# a_n100_170905# a_n158_171002# w_n358_n183987# sky130_fd_pr__pfet_g5v0d10v5 ad=1.74 pd=12.58 as=1.74 ps=12.58 w=6 l=1
X116 a_100_109254# a_n100_109157# a_n158_109254# w_n358_n183987# sky130_fd_pr__pfet_g5v0d10v5 ad=1.74 pd=12.58 as=1.74 ps=12.58 w=6 l=1
X117 a_100_104946# a_n100_104849# a_n158_104946# w_n358_n183987# sky130_fd_pr__pfet_g5v0d10v5 ad=1.74 pd=12.58 as=1.74 ps=12.58 w=6 l=1
X118 a_100_48942# a_n100_48845# a_n158_48942# w_n358_n183987# sky130_fd_pr__pfet_g5v0d10v5 ad=1.74 pd=12.58 as=1.74 ps=12.58 w=6 l=1
X119 a_100_83406# a_n100_83309# a_n158_83406# w_n358_n183987# sky130_fd_pr__pfet_g5v0d10v5 ad=1.74 pd=12.58 as=1.74 ps=12.58 w=6 l=1
X120 a_100_n38654# a_n100_n38751# a_n158_n38654# w_n358_n183987# sky130_fd_pr__pfet_g5v0d10v5 ad=1.74 pd=12.58 as=1.74 ps=12.58 w=6 l=1
X121 a_100_n179382# a_n100_n179479# a_n158_n179382# w_n358_n183987# sky130_fd_pr__pfet_g5v0d10v5 ad=1.74 pd=12.58 as=1.74 ps=12.58 w=6 l=1
X122 a_100_30274# a_n100_30177# a_n158_30274# w_n358_n183987# sky130_fd_pr__pfet_g5v0d10v5 ad=1.74 pd=12.58 as=1.74 ps=12.58 w=6 l=1
X123 a_100_n172202# a_n100_n172299# a_n158_n172202# w_n358_n183987# sky130_fd_pr__pfet_g5v0d10v5 ad=1.74 pd=12.58 as=1.74 ps=12.58 w=6 l=1
X124 a_100_n75990# a_n100_n76087# a_n158_n75990# w_n358_n183987# sky130_fd_pr__pfet_g5v0d10v5 ad=1.74 pd=12.58 as=1.74 ps=12.58 w=6 l=1
X125 a_100_132230# a_n100_132133# a_n158_132230# w_n358_n183987# sky130_fd_pr__pfet_g5v0d10v5 ad=1.74 pd=12.58 as=1.74 ps=12.58 w=6 l=1
X126 a_100_n147790# a_n100_n147887# a_n158_n147790# w_n358_n183987# sky130_fd_pr__pfet_g5v0d10v5 ad=1.74 pd=12.58 as=1.74 ps=12.58 w=6 l=1
X127 a_100_n73118# a_n100_n73215# a_n158_n73118# w_n358_n183987# sky130_fd_pr__pfet_g5v0d10v5 ad=1.74 pd=12.58 as=1.74 ps=12.58 w=6 l=1
X128 a_100_n140610# a_n100_n140707# a_n158_n140610# w_n358_n183987# sky130_fd_pr__pfet_g5v0d10v5 ad=1.74 pd=12.58 as=1.74 ps=12.58 w=6 l=1
X129 a_100_100638# a_n100_100541# a_n158_100638# w_n358_n183987# sky130_fd_pr__pfet_g5v0d10v5 ad=1.74 pd=12.58 as=1.74 ps=12.58 w=6 l=1
X130 a_100_44634# a_n100_44537# a_n158_44634# w_n358_n183987# sky130_fd_pr__pfet_g5v0d10v5 ad=1.74 pd=12.58 as=1.74 ps=12.58 w=6 l=1
X131 a_100_86278# a_n100_86181# a_n158_86278# w_n358_n183987# sky130_fd_pr__pfet_g5v0d10v5 ad=1.74 pd=12.58 as=1.74 ps=12.58 w=6 l=1
X132 a_100_5862# a_n100_5765# a_n158_5862# w_n358_n183987# sky130_fd_pr__pfet_g5v0d10v5 ad=1.74 pd=12.58 as=1.74 ps=12.58 w=6 l=1
X133 a_100_n34346# a_n100_n34443# a_n158_n34346# w_n358_n183987# sky130_fd_pr__pfet_g5v0d10v5 ad=1.74 pd=12.58 as=1.74 ps=12.58 w=6 l=1
X134 a_100_n175074# a_n100_n175171# a_n158_n175074# w_n358_n183987# sky130_fd_pr__pfet_g5v0d10v5 ad=1.74 pd=12.58 as=1.74 ps=12.58 w=6 l=1
X135 a_100_119306# a_n100_119209# a_n158_119306# w_n358_n183987# sky130_fd_pr__pfet_g5v0d10v5 ad=1.74 pd=12.58 as=1.74 ps=12.58 w=6 l=1